ZINC24147385
     RDKit          3D

 34 37  0  0  1  0  0  0  0  0999 V2000
   -2.0680    1.9220    1.5732 C   0  0  0  0  0  0  0  0  0  0  0  0
   -1.6106    1.8001    0.1183 C   0  0  0  0  0  0  0  0  0  0  0  0
   -0.3081    1.1312    0.0703 N   0  0  0  0  0  0  0  0  0  0  0  0
    0.9133    1.8066    0.0306 C   0  0  0  0  0  0  0  0  0  0  0  0
    1.2005    3.1699    0.0317 C   0  0  0  0  0  0  0  0  0  0  0  0
    2.5093    3.6029   -0.0126 C   0  0  0  0  0  0  0  0  0  0  0  0
    3.5464    2.6890   -0.0581 C   0  0  0  0  0  0  0  0  0  0  0  0
    3.2697    1.3332   -0.0602 C   0  0  0  0  0  0  0  0  0  0  0  0
    1.9644    0.8971   -0.0164 C   0  0  0  0  0  0  0  0  0  0  0  0
    1.3325   -0.4692   -0.0061 C   0  0  0  0  0  0  0  0  0  0  0  0
   -0.1505   -0.2053    0.0535 C   0  0  0  0  0  0  0  0  0  0  0  0
   -1.0323   -1.0376    0.0814 O   0  0  0  0  0  0  0  0  0  0  0  0
    1.7901   -1.2748    1.1791 C   0  0  0  0  0  0  0  0  0  0  0  0
    2.3587   -2.4003    0.6818 C   0  0  0  0  0  0  0  0  0  0  0  0
    2.2919   -2.3655   -0.7952 C   0  0  0  0  0  0  0  0  0  0  0  0
    2.7175   -3.2317   -1.5333 O   0  0  0  0  0  0  0  0  0  0  0  0
    1.6886   -1.2308   -1.2009 N   0  0  0  0  0  0  0  0  0  0  0  0
    1.4353   -0.8333   -2.5880 C   0  0  0  0  0  0  0  0  0  0  0  0
    2.6263   -0.0296   -3.1138 C   0  0  0  0  0  0  0  0  0  0  0  0
    2.3724    0.3689   -4.5047 N   0  0  0  0  0  0  0  0  0  0  0  0
    3.3770    1.3359   -4.9671 C   0  0  0  0  0  0  0  0  0  0  0  0
    2.3249   -0.8039   -5.3881 C   0  0  0  0  0  0  0  0  0  0  0  0
    2.9013   -3.3966    1.4191 O   0  0  0  0  0  0  0  0  0  0  0  0
    1.6486   -0.9139    2.5933 C   0  0  0  0  0  0  0  0  0  0  0  0
    2.3808   -0.0742    3.0833 O   0  0  0  0  0  0  0  0  0  0  0  0
    0.6182   -1.5690    3.4227 C   0  0  0  0  0  0  0  0  0  0  0  0
   -0.1526   -2.6080    2.8920 C   0  0  0  0  0  0  0  0  0  0  0  0
   -1.1086   -3.2202    3.6707 C   0  0  0  0  0  0  0  0  0  0  0  0
   -1.3158   -2.7993    4.9797 C   0  0  0  0  0  0  0  0  0  0  0  0
   -0.5558   -1.7623    5.5093 C   0  0  0  0  0  0  0  0  0  0  0  0
    0.4062   -1.1486    4.7392 C   0  0  0  0  0  0  0  0  0  0  0  0
   -2.2628   -3.4019    5.7422 O   0  0  0  0  0  0  0  0  0  0  0  0
   -3.0073   -4.4602    5.1358 C   0  0  0  0  0  0  0  0  0  0  0  0
   -4.0199   -5.0125    6.1411 C   0  0  0  0  0  0  0  0  0  0  0  0
  1  2  1  0
  2  3  1  0
  3 11  1  0
  3  4  1  0
  4  9  2  0
  4  5  1  0
  5  6  2  0
  6  7  1  0
  7  8  2  0
  8  9  1  0
  9 10  1  0
 10 17  1  0
 10 11  1  0
 10 13  1  0
 11 12  2  0
 13 14  2  0
 13 24  1  0
 14 15  1  0
 14 23  1  0
 15 16  2  0
 15 17  1  0
 17 18  1  0
 18 19  1  0
 19 20  1  0
 20 21  1  0
 20 22  1  0
 24 25  2  0
 24 26  1  0
 26 31  1  0
 26 27  2  0
 27 28  1  0
 28 29  2  0
 29 30  1  0
 29 32  1  0
 30 31  2  0
 32 33  1  0
 33 34  1  0
M  CHG  2  20   1  23  -1
M  END

