gsma.pdb
 OpenBabel07242100213D

 53 55  0  0  1  0  0  0  0  0999 V2000
   85.2230   17.5630 -101.9920 C   0  0  2  0  0  0  0  0  0  0  0  0
   89.0200   22.4480 -104.5680 C   0  0  0  0  0  0  0  0  0  0  0  0
   84.0160   17.9720 -102.6190 O   0  0  0  0  0  0  0  0  0  0  0  0
   86.3940   17.7720 -102.9310 C   0  0  2  0  0  0  0  0  0  0  0  0
   88.5540   21.2500 -104.0630 C   0  0  0  0  0  0  0  0  0  0  0  0
   86.6000   19.1550 -103.2580 N   0  0  0  0  0  0  0  0  0  0  0  0
   86.1760   16.9900 -104.2010 C   0  0  1  0  0  0  0  0  0  0  0  0
   88.6500   23.6220 -103.9480 C   0  0  0  0  0  0  0  0  0  0  0  0
   87.3820   17.0370 -104.9250 O   0  0  0  0  0  0  0  0  0  0  0  0
   85.8590   15.5500 -103.8860 C   0  0  2  0  0  0  0  0  0  0  0  0
   87.3640   22.4070 -102.3320 C   0  0  0  0  0  0  0  0  0  0  0  0
   85.4470   14.9380 -105.0970 O   0  0  0  0  0  0  0  0  0  0  0  0
   84.7070   15.5670 -102.9120 C   0  0  2  0  0  0  0  0  0  0  0  0
   83.9070   10.8720  -99.5110 C   0  0  0  0  0  0  0  0  0  0  0  0
   85.1600   16.1740 -101.7130 O   0  0  0  0  0  0  0  0  0  0  0  0
   84.1030   14.2150 -102.6080 C   0  0  0  0  0  0  0  0  0  0  0  0
   87.7310   21.2420 -102.9530 C   0  0  0  0  0  0  0  0  0  0  0  0
   83.5430    9.5360  -99.7910 C   0  0  0  0  0  0  0  0  0  0  0  0
   87.8280   23.5950 -102.8370 C   0  0  0  0  0  0  0  0  0  0  0  0
   84.1850    9.1680 -100.9490 C   0  0  0  0  0  0  0  0  0  0  0  0
   84.7590   11.2570 -100.5220 C   0  0  0  0  0  0  0  0  0  0  0  0
   87.2160   19.9950 -102.3720 C   0  0  0  0  0  0  0  0  0  0  0  0
   82.5860    8.6870  -98.9390 C   0  0  0  0  0  0  0  0  0  0  0  0
   84.2100    7.9320 -101.7430 C   0  0  0  0  0  0  0  0  0  0  0  0
   85.1610   13.2300 -102.3910 N   0  0  0  0  0  0  0  0  0  0  0  0
   82.3520    7.5240  -99.3970 O   0  0  0  0  0  0  0  0  0  0  0  0
   87.3660   19.7930 -101.1770 O   0  0  0  0  0  0  0  0  0  0  0  0
   82.1260    9.2470  -97.8970 O   0  0  0  0  0  0  0  0  0  0  0  0
   85.0120   13.6990  -99.8100 O   0  0  0  0  0  0  0  0  0  0  0  0
   86.9580   12.3860 -100.7750 O   0  0  0  0  0  0  0  0  0  0  0  0
   84.9320   10.2180 -101.3920 O   0  0  0  0  0  0  0  0  0  0  0  0
   85.5660   12.7780 -100.7890 S   0  0  0  0  0  0  0  0  0  0  0  0
   87.2890   25.1810 -101.9440 Br  0  0  0  0  0  0  0  0  0  0  0  0
   86.0000   13.5990 -102.8150 H   0  0  0  0  0  0  0  0  0  0  0  0
   85.3510   18.1470 -101.0800 H   0  0  0  0  0  0  0  0  0  0  0  0
   89.6700   22.4650 -105.4430 H   0  0  0  0  0  0  0  0  0  0  0  0
   83.6970   17.2690 -103.1890 H   0  0  0  0  0  0  0  0  0  0  0  0
   87.2850   17.4190 -102.4120 H   0  0  0  0  0  0  0  0  0  0  0  0
   88.8350   20.3110 -104.5400 H   0  0  0  0  0  0  0  0  0  0  0  0
   86.2870   19.5100 -104.1500 H   0  0  0  0  0  0  0  0  0  0  0  0
   85.3450   17.4130 -104.7650 H   0  0  0  0  0  0  0  0  0  0  0  0
   89.0070   24.5760 -104.3360 H   0  0  0  0  0  0  0  0  0  0  0  0
   87.6040   17.9510 -105.1190 H   0  0  0  0  0  0  0  0  0  0  0  0
   86.7090   15.0120 -103.4660 H   0  0  0  0  0  0  0  0  0  0  0  0
   86.7170   22.3900 -101.4550 H   0  0  0  0  0  0  0  0  0  0  0  0
   85.2200   14.0200 -104.9310 H   0  0  0  0  0  0  0  0  0  0  0  0
   83.9020   16.1300 -103.3840 H   0  0  0  0  0  0  0  0  0  0  0  0
   83.5790   11.4760  -98.6650 H   0  0  0  0  0  0  0  0  0  0  0  0
   83.4820   13.9000 -103.4470 H   0  0  0  0  0  0  0  0  0  0  0  0
   83.3570    7.9180 -102.4220 H   0  0  0  0  0  0  0  0  0  0  0  0
   84.1590    7.0710 -101.0770 H   0  0  0  0  0  0  0  0  0  0  0  0
   83.4950   14.2900 -101.7060 H   0  0  0  0  0  0  0  0  0  0  0  0
   85.1340    7.8900 -102.3200 H   0  0  0  0  0  0  0  0  0  0  0  0
  1  3  1  0  0  0  0
  1 15  1  0  0  0  0
  1 35  1  1  0  0  0
  1  4  1  0  0  0  0
  2  5  2  0  0  0  0
  2  8  1  0  0  0  0
  2 36  1  0  0  0  0
  3 37  1  0  0  0  0
  4  6  1  0  0  0  0
  4  7  1  0  0  0  0
  4 38  1  1  0  0  0
  5 17  1  0  0  0  0
  5 39  1  0  0  0  0
  6 40  1  0  0  0  0
  6 22  1  0  0  0  0
  7  9  1  0  0  0  0
  7 10  1  0  0  0  0
  7 41  1  6  0  0  0
  8 19  2  0  0  0  0
  8 42  1  0  0  0  0
  9 43  1  0  0  0  0
 10 12  1  0  0  0  0
 10 13  1  0  0  0  0
 10 44  1  1  0  0  0
 11 17  2  0  0  0  0
 11 19  1  0  0  0  0
 11 45  1  0  0  0  0
 12 46  1  0  0  0  0
 13 15  1  0  0  0  0
 13 16  1  0  0  0  0
 13 47  1  6  0  0  0
 14 18  1  0  0  0  0
 14 21  2  0  0  0  0
 14 48  1  0  0  0  0
 16 25  1  0  0  0  0
 16 49  1  0  0  0  0
 16 52  1  0  0  0  0
 17 22  1  0  0  0  0
 18 20  2  0  0  0  0
 18 23  1  0  0  0  0
 19 33  1  0  0  0  0
 20 24  1  0  0  0  0
 20 31  1  0  0  0  0
 21 31  1  0  0  0  0
 21 32  1  0  0  0  0
 22 27  2  0  0  0  0
 23 26  2  0  0  0  0
 23 28  1  0  0  0  0
 24 50  1  0  0  0  0
 24 51  1  0  0  0  0
 24 53  1  0  0  0  0
 25 32  1  0  0  0  0
 25 34  1  0  0  0  0
 29 32  2  0  0  0  0
 30 32  2  0  0  0  0
M  END
